6

C     5.07180  -0.00475   0.00385
Cl    6.62720   0.06883  -0.01142
H     4.51390  -0.57915  -0.90505
H     4.52935  -0.55113   0.93823
H     4.44404   1.03037  -0.00710
F     2.45614  -0.12829   0.02451
6

C     5.02683  -0.00698   0.00420
Cl    6.63965   0.06946  -0.01152
H     4.51613  -0.57973  -0.90626
H     4.53159  -0.55166   0.93939
H     4.44624   1.03182  -0.00715
F     2.47334  -0.12745   0.02440
6

C     4.98186  -0.00921   0.00455
Cl    6.65210   0.07008  -0.01163
H     4.51836  -0.58031  -0.90747
H     4.53383  -0.55220   0.94056
H     4.44845   1.03327  -0.00719
F     2.49055  -0.12662   0.02428
6

C     4.93689  -0.01143   0.00490
Cl    6.66455   0.07071  -0.01173
H     4.52059  -0.58089  -0.90869
H     4.53607  -0.55273   0.94172
H     4.45065   1.03472  -0.00724
F     2.50776  -0.12578   0.02416
6

C     4.89192  -0.01366   0.00525
Cl    6.67701   0.07134  -0.01183
H     4.52282  -0.58147  -0.90990
H     4.53832  -0.55327   0.94288
H     4.45285   1.03617  -0.00729
F     2.52497  -0.12494   0.02404
6

C     4.84695  -0.01589   0.00561
Cl    6.68946   0.07197  -0.01194
H     4.52505  -0.58205  -0.91112
H     4.54056  -0.55380   0.94405
H     4.45506   1.03762  -0.00734
F     2.54217  -0.12410   0.02393
6

C     4.80198  -0.01812   0.00596
Cl    6.70191   0.07259  -0.01204
H     4.52729  -0.58264  -0.91233
H     4.54280  -0.55434   0.94521
H     4.45726   1.03907  -0.00738
F     2.55938  -0.12327   0.02381
6

C     4.75701  -0.02034   0.00631
Cl    6.71436   0.07322  -0.01214
H     4.52952  -0.58322  -0.91354
H     4.54504  -0.55487   0.94637
H     4.45946   1.04052  -0.00743
F     2.57659  -0.12243   0.02369
6

C     4.71205  -0.02257   0.00666
Cl    6.72681   0.07385  -0.01224
H     4.53175  -0.58380  -0.91476
H     4.54728  -0.55541   0.94754
H     4.46167   1.04197  -0.00748
F     2.59380  -0.12159   0.02357
6

C     4.66708  -0.02480   0.00702
Cl    6.73927   0.07447  -0.01235
H     4.53398  -0.58438  -0.91597
H     4.54952  -0.55594   0.94870
H     4.46387   1.04342  -0.00752
F     2.61100  -0.12076   0.02346
6

C     4.62211  -0.02702   0.00737
Cl    6.75172   0.07510  -0.01245
H     4.53621  -0.58496  -0.91718
H     4.55176  -0.55648   0.94987
H     4.46607   1.04487  -0.00757
F     2.62821  -0.11992   0.02334
6

C     4.57714  -0.02925   0.00772
Cl    6.76417   0.07573  -0.01255
H     4.53844  -0.58554  -0.91840
H     4.55400  -0.55701   0.95103
H     4.46828   1.04632  -0.00762
F     2.64542  -0.11908   0.02322
6

C     4.53217  -0.03148   0.00807
Cl    6.77662   0.07635  -0.01266
H     4.54067  -0.58612  -0.91961
H     4.55624  -0.55755   0.95219
H     4.47048   1.04777  -0.00766
F     2.66263  -0.11824   0.02311
6

C     4.48720  -0.03370   0.00842
Cl    6.78908   0.07698  -0.01276
H     4.54290  -0.58670  -0.92082
H     4.55848  -0.55808   0.95336
H     4.47268   1.04922  -0.00771
F     2.67983  -0.11741   0.02299
6

C     4.44223  -0.03593   0.00878
Cl    6.80153   0.07761  -0.01286
H     4.54513  -0.58728  -0.92204
H     4.56072  -0.55862   0.95452
H     4.47489   1.05067  -0.00776
F     2.69704  -0.11657   0.02287
6

C     4.39726  -0.03816   0.00913
Cl    6.81398   0.07823  -0.01296
H     4.54737  -0.58786  -0.92325
H     4.56296  -0.55915   0.95569
H     4.47709   1.05212  -0.00780
F     2.71425  -0.11573   0.02275
6

C     4.35229  -0.04038   0.00948
Cl    6.82643   0.07886  -0.01307
H     4.54960  -0.58844  -0.92447
H     4.56520  -0.55969   0.95685
H     4.47929   1.05357  -0.00785
F     2.73146  -0.11489   0.02264
6

C     4.30732  -0.04261   0.00983
Cl    6.83888   0.07949  -0.01317
H     4.55183  -0.58902  -0.92568
H     4.56744  -0.56022   0.95801
H     4.48150   1.05502  -0.00790
F     2.74866  -0.11406   0.02252
6

C     4.26235  -0.04484   0.01019
Cl    6.85134   0.08012  -0.01327
H     4.55406  -0.58961  -0.92689
H     4.56968  -0.56076   0.95918
H     4.48370   1.05647  -0.00795
F     2.76587  -0.11322   0.02240
6

C     4.21738  -0.04707   0.01054
Cl    6.86379   0.08074  -0.01338
H     4.55629  -0.59019  -0.92811
H     4.57192  -0.56129   0.96034
H     4.48590   1.05792  -0.00799
F     2.78308  -0.11238   0.02228
6

C     4.17241  -0.04929   0.01089
Cl    6.87624   0.08137  -0.01348
H     4.55852  -0.59077  -0.92932
H     4.57417  -0.56183   0.96150
H     4.48811   1.05937  -0.00804
F     2.80029  -0.11155   0.02217
6

C     4.21738  -0.04707   0.01054
Cl    6.86379   0.08074  -0.01338
H     4.55629  -0.59019  -0.92811
H     4.57192  -0.56129   0.96034
H     4.48590   1.05792  -0.00799
F     2.78308  -0.11238   0.02228
6

C     4.26235  -0.04484   0.01019
Cl    6.85134   0.08012  -0.01327
H     4.55406  -0.58961  -0.92689
H     4.56968  -0.56076   0.95918
H     4.48370   1.05647  -0.00795
F     2.76587  -0.11322   0.02240
6

C     4.30732  -0.04261   0.00983
Cl    6.83888   0.07949  -0.01317
H     4.55183  -0.58902  -0.92568
H     4.56744  -0.56022   0.95801
H     4.48150   1.05502  -0.00790
F     2.74866  -0.11406   0.02252
6

C     4.35229  -0.04038   0.00948
Cl    6.82643   0.07886  -0.01307
H     4.54960  -0.58844  -0.92447
H     4.56520  -0.55969   0.95685
H     4.47929   1.05357  -0.00785
F     2.73146  -0.11489   0.02264
6

C     4.39726  -0.03816   0.00913
Cl    6.81398   0.07823  -0.01296
H     4.54737  -0.58786  -0.92325
H     4.56296  -0.55915   0.95569
H     4.47709   1.05212  -0.00780
F     2.71425  -0.11573   0.02275
6

C     4.44223  -0.03593   0.00878
Cl    6.80153   0.07761  -0.01286
H     4.54513  -0.58728  -0.92204
H     4.56072  -0.55862   0.95452
H     4.47489   1.05067  -0.00776
F     2.69704  -0.11657   0.02287
6

C     4.48720  -0.03370   0.00842
Cl    6.78908   0.07698  -0.01276
H     4.54290  -0.58670  -0.92082
H     4.55848  -0.55808   0.95336
H     4.47268   1.04922  -0.00771
F     2.67983  -0.11741   0.02299
6

C     4.53217  -0.03148   0.00807
Cl    6.77662   0.07635  -0.01266
H     4.54067  -0.58612  -0.91961
H     4.55624  -0.55755   0.95219
H     4.47048   1.04777  -0.00766
F     2.66263  -0.11824   0.02311
6

C     4.57714  -0.02925   0.00772
Cl    6.76417   0.07573  -0.01255
H     4.53844  -0.58554  -0.91840
H     4.55400  -0.55701   0.95103
H     4.46828   1.04632  -0.00762
F     2.64542  -0.11908   0.02322
6

C     4.62211  -0.02702   0.00737
Cl    6.75172   0.07510  -0.01245
H     4.53621  -0.58496  -0.91718
H     4.55176  -0.55648   0.94987
H     4.46607   1.04487  -0.00757
F     2.62821  -0.11992   0.02334
6

C     4.66708  -0.02480   0.00702
Cl    6.73927   0.07447  -0.01235
H     4.53398  -0.58438  -0.91597
H     4.54952  -0.55594   0.94870
H     4.46387   1.04342  -0.00752
F     2.61100  -0.12076   0.02346
6

C     4.71205  -0.02257   0.00666
Cl    6.72681   0.07385  -0.01224
H     4.53175  -0.58380  -0.91476
H     4.54728  -0.55541   0.94754
H     4.46167   1.04197  -0.00748
F     2.59380  -0.12159   0.02357
6

C     4.75701  -0.02034   0.00631
Cl    6.71436   0.07322  -0.01214
H     4.52952  -0.58322  -0.91354
H     4.54504  -0.55487   0.94637
H     4.45946   1.04052  -0.00743
F     2.57659  -0.12243   0.02369
6

C     4.80198  -0.01812   0.00596
Cl    6.70191   0.07259  -0.01204
H     4.52729  -0.58264  -0.91233
H     4.54280  -0.55434   0.94521
H     4.45726   1.03907  -0.00738
F     2.55938  -0.12327   0.02381
6

C     4.84695  -0.01589   0.00561
Cl    6.68946   0.07197  -0.01194
H     4.52505  -0.58205  -0.91112
H     4.54056  -0.55380   0.94405
H     4.45506   1.03762  -0.00734
F     2.54217  -0.12410   0.02393
6

C     4.89192  -0.01366   0.00525
Cl    6.67701   0.07134  -0.01183
H     4.52282  -0.58147  -0.90990
H     4.53832  -0.55327   0.94288
H     4.45285   1.03617  -0.00729
F     2.52497  -0.12494   0.02404
6

C     4.93689  -0.01143   0.00490
Cl    6.66455   0.07071  -0.01173
H     4.52059  -0.58089  -0.90869
H     4.53607  -0.55273   0.94172
H     4.45065   1.03472  -0.00724
F     2.50776  -0.12578   0.02416
6

C     4.98186  -0.00921   0.00455
Cl    6.65210   0.07008  -0.01163
H     4.51836  -0.58031  -0.90747
H     4.53383  -0.55220   0.94056
H     4.44845   1.03327  -0.00719
F     2.49055  -0.12662   0.02428
6

C     5.02683  -0.00698   0.00420
Cl    6.63965   0.06946  -0.01152
H     4.51613  -0.57973  -0.90626
H     4.53159  -0.55166   0.93939
H     4.44624   1.03182  -0.00715
F     2.47334  -0.12745   0.02440
