40

Ir 0.202379 -0.219132 -0.000980
P -2.080225 -0.152029 -0.026432
N 2.352615 -0.101735 -0.029508
N 0.200233 1.838405 0.078447
C 0.226563 -2.050998 0.034273
C -2.846950 0.463537 -1.607337
C -2.810213 0.970520 1.265541
C -2.360871 0.636738 2.689823
C -3.011462 -1.739267 0.271328
C -3.034029 -2.737341 -0.889846
C -2.382129 1.841828 -2.080386
H -2.601071 -0.304801 -2.369529
H -3.949873 0.432832 -1.460803
H -2.509758 2.004477 1.000086
H -3.915948 0.918066 1.158470
H -2.541818 -2.193891 1.168311
H -4.045436 -1.451663 0.561988
H -1.255840 0.681006 2.767716
H -2.789626 1.357712 3.415169
H -2.680026 -0.379345 3.000845
H -3.577268 -2.336901 -1.768908
H -2.012313 -3.018388 -1.210230
H -3.554266 -3.667805 -0.582292
H -2.611394 2.643436 -1.350008
H -1.287387 1.853501 -2.246053
H -2.881941 2.107927 -3.034043
C 5.161752 0.102961 -0.122276
C 4.346814 1.140099 -0.597304
C 2.956162 1.005495 -0.533679
C 3.143027 -1.106164 0.426788
C 4.539162 -1.040327 0.400019
H 6.258774 0.182459 -0.159002
H 4.776896 2.060364 -1.018580
H 2.271384 1.799429 -0.865686
H 2.622060 -1.993533 0.811957
H 5.124836 -1.886545 0.787467
N 0.274385 -3.280340 0.002641
H 0.230228 -3.909156 0.809434
C -0.242643 2.948183 0.268824
O -0.668971 4.056067 0.442491
